
#######################################################################
#
#                 Cambridge Crystallographic Data Centre
#                                CCDC 
#
#######################################################################
#
# If this CIF has been generated from an entry in the Cambridge 
# Structural Database, then it will include bibliographic, chemical, 
# crystal, experimental, refinement or atomic coordinate data resulting 
# from the CCDC's data processing and validation procedures.
#
#######################################################################

data_BENZEN
_symmetry_cell_setting           orthorhombic
_symmetry_space_group_name_H-M   'P b c a'
_symmetry_Int_Tables_number      61
_space_group_name_Hall           '-P 2ac 2ab'
loop_
_symmetry_equiv_pos_site_id
_symmetry_equiv_pos_as_xyz
1 x,y,z
2 1/2-x,-y,1/2+z
3 1/2+x,1/2-y,-z
4 -x,1/2+y,1/2-z
5 -x,-y,-z
6 1/2+x,y,1/2-z
7 1/2-x,1/2+y,z
8 x,1/2-y,1/2+z
_cell_length_a                   7.440
_cell_length_b                   9.550
_cell_length_c                   6.920
_cell_angle_alpha                90
_cell_angle_beta                 90
_cell_angle_gamma                90
_cell_volume                     491.68
loop_
_atom_site_label
_atom_site_type_symbol
_atom_site_fract_x
_atom_site_fract_y
_atom_site_fract_z
C1 C -0.05690 0.13870 -0.00540
C2 C -0.13350 0.04600 0.12640
C3 C 0.07740 0.09250 -0.12950
H1 H -0.09760 0.24470 -0.01770
H2 H -0.24090 0.07940 0.22180
H3 H 0.13710 0.16310 -0.23120
C3D C -0.07740 -0.09250 0.12950
C2D C 0.13350 -0.04600 -0.12640
C1D C 0.05690 -0.13870 0.00540
H3D H -0.13710 -0.16310 0.23120
H2D H 0.24090 -0.07940 -0.22180
H1D H 0.09760 -0.24470 0.01770
C1 C -0.05690 0.13870 0.99460
C2 C -0.13350 0.04600 1.12640
C3 C 0.07740 0.09250 0.87050
H1 H -0.09760 0.24470 0.98230
H2 H -0.24090 0.07940 1.22180
H3 H 0.13710 0.16310 0.76880
C3D C -0.07740 -0.09250 1.12950
C2D C 0.13350 -0.04600 0.87360
C1D C 0.05690 -0.13870 1.00540
H3D H -0.13710 -0.16310 1.23120
H2D H 0.24090 -0.07940 0.77820
H1D H 0.09760 -0.24470 1.01770
C1 C -0.05690 1.13870 -0.00540
C2 C -0.13350 1.04600 0.12640
C3 C 0.07740 1.09250 -0.12950
H1 H -0.09760 1.24470 -0.01770
H2 H -0.24090 1.07940 0.22180
H3 H 0.13710 1.16310 -0.23120
C3D C -0.07740 0.90750 0.12950
C2D C 0.13350 0.95400 -0.12640
C1D C 0.05690 0.86130 0.00540
H3D H -0.13710 0.83690 0.23120
H2D H 0.24090 0.92060 -0.22180
H1D H 0.09760 0.75530 0.01770
C1 C -0.05690 1.13870 0.99460
C2 C -0.13350 1.04600 1.12640
C3 C 0.07740 1.09250 0.87050
H1 H -0.09760 1.24470 0.98230
H2 H -0.24090 1.07940 1.22180
H3 H 0.13710 1.16310 0.76880
C3D C -0.07740 0.90750 1.12950
C2D C 0.13350 0.95400 0.87360
C1D C 0.05690 0.86130 1.00540
H3D H -0.13710 0.83690 1.23120
H2D H 0.24090 0.92060 0.77820
H1D H 0.09760 0.75530 1.01770
C1 C 0.94310 0.13870 -0.00540
C2 C 0.86650 0.04600 0.12640
C3 C 1.07740 0.09250 -0.12950
H1 H 0.90240 0.24470 -0.01770
H2 H 0.75910 0.07940 0.22180
H3 H 1.13710 0.16310 -0.23120
C3D C 0.92260 -0.09250 0.12950
C2D C 1.13350 -0.04600 -0.12640
C1D C 1.05690 -0.13870 0.00540
H3D H 0.86290 -0.16310 0.23120
H2D H 1.24090 -0.07940 -0.22180
H1D H 1.09760 -0.24470 0.01770
C1 C 0.94310 0.13870 0.99460
C2 C 0.86650 0.04600 1.12640
C3 C 1.07740 0.09250 0.87050
H1 H 0.90240 0.24470 0.98230
H2 H 0.75910 0.07940 1.22180
H3 H 1.13710 0.16310 0.76880
C3D C 0.92260 -0.09250 1.12950
C2D C 1.13350 -0.04600 0.87360
C1D C 1.05690 -0.13870 1.00540
H3D H 0.86290 -0.16310 1.23120
H2D H 1.24090 -0.07940 0.77820
H1D H 1.09760 -0.24470 1.01770
C1 C 0.94310 1.13870 -0.00540
C2 C 0.86650 1.04600 0.12640
C3 C 1.07740 1.09250 -0.12950
H1 H 0.90240 1.24470 -0.01770
H2 H 0.75910 1.07940 0.22180
H3 H 1.13710 1.16310 -0.23120
C3D C 0.92260 0.90750 0.12950
C2D C 1.13350 0.95400 -0.12640
C1D C 1.05690 0.86130 0.00540
H3D H 0.86290 0.83690 0.23120
H2D H 1.24090 0.92060 -0.22180
H1D H 1.09760 0.75530 0.01770
C1 C 0.94310 1.13870 0.99460
C2 C 0.86650 1.04600 1.12640
C3 C 1.07740 1.09250 0.87050
H1 H 0.90240 1.24470 0.98230
H2 H 0.75910 1.07940 1.22180
H3 H 1.13710 1.16310 0.76880
C3D C 0.92260 0.90750 1.12950
C2D C 1.13350 0.95400 0.87360
C1D C 1.05690 0.86130 1.00540
H3D H 0.86290 0.83690 1.23120
H2D H 1.24090 0.92060 0.77820
H1D H 1.09760 0.75530 1.01770
C1 C 0.55690 -0.13870 0.49460
C2 C 0.63350 -0.04600 0.62640
C3 C 0.42260 -0.09250 0.37050
H1 H 0.59760 -0.24470 0.48230
H2 H 0.74090 -0.07940 0.72180
H3 H 0.36290 -0.16310 0.26880
C3D C 0.57740 0.09250 0.62950
C2D C 0.36650 0.04600 0.37360
C1D C 0.44310 0.13870 0.50540
H3D H 0.63710 0.16310 0.73120
H2D H 0.25910 0.07940 0.27820
H1D H 0.40240 0.24470 0.51770
C1 C 0.55690 0.86130 0.49460
C2 C 0.63350 0.95400 0.62640
C3 C 0.42260 0.90750 0.37050
H1 H 0.59760 0.75530 0.48230
H2 H 0.74090 0.92060 0.72180
H3 H 0.36290 0.83690 0.26880
C3D C 0.57740 1.09250 0.62950
C2D C 0.36650 1.04600 0.37360
C1D C 0.44310 1.13870 0.50540
H3D H 0.63710 1.16310 0.73120
H2D H 0.25910 1.07940 0.27820
H1D H 0.40240 1.24470 0.51770
C1 C 0.44310 0.36130 0.00540
C2 C 0.36650 0.45400 -0.12640
C3 C 0.57740 0.40750 0.12950
H1 H 0.40240 0.25530 0.01770
H2 H 0.25910 0.42060 -0.22180
H3 H 0.63710 0.33690 0.23120
C3D C 0.42260 0.59250 -0.12950
C2D C 0.63350 0.54600 0.12640
C1D C 0.55690 0.63870 -0.00540
H3D H 0.36290 0.66310 -0.23120
H2D H 0.74090 0.57940 0.22180
H1D H 0.59760 0.74470 -0.01770
C1 C 0.44310 0.36130 1.00540
C2 C 0.36650 0.45400 0.87360
C3 C 0.57740 0.40750 1.12950
H1 H 0.40240 0.25530 1.01770
H2 H 0.25910 0.42060 0.77820
H3 H 0.63710 0.33690 1.23120
C3D C 0.42260 0.59250 0.87050
C2D C 0.63350 0.54600 1.12640
C1D C 0.55690 0.63870 0.99460
H3D H 0.36290 0.66310 0.76880
H2D H 0.74090 0.57940 1.22180
H1D H 0.59760 0.74470 0.98230
C1 C 0.05690 0.63870 0.50540
C2 C 0.13350 0.54600 0.37360
C3 C -0.07740 0.59250 0.62950
H1 H 0.09760 0.74470 0.51770
H2 H 0.24090 0.57940 0.27820
H3 H -0.13710 0.66310 0.73120
C3D C 0.07740 0.40750 0.37050
C2D C -0.13350 0.45400 0.62640
C1D C -0.05690 0.36130 0.49460
H3D H 0.13710 0.33690 0.26880
H2D H -0.24090 0.42060 0.72180
H1D H -0.09760 0.25530 0.48230
C1 C 1.05690 0.63870 0.50540
C2 C 1.13350 0.54600 0.37360
C3 C 0.92260 0.59250 0.62950
H1 H 1.09760 0.74470 0.51770
H2 H 1.24090 0.57940 0.27820
H3 H 0.86290 0.66310 0.73120
C3D C 1.07740 0.40750 0.37050
C2D C 0.86650 0.45400 0.62640
C1D C 0.94310 0.36130 0.49460
H3D H 1.13710 0.33690 0.26880
H2D H 0.75910 0.42060 0.72180
H1D H 0.90240 0.25530 0.48230

#END
