
#######################################################################
#
#                 Cambridge Crystallographic Data Centre
#                                CCDC 
#
#######################################################################
#
# If this CIF has been generated from an entry in the Cambridge 
# Structural Database, then it will include bibliographic, chemical, 
# crystal, experimental, refinement or atomic coordinate data resulting 
# from the CCDC's data processing and validation procedures.
#
#######################################################################

data_DATNBZ01
_symmetry_cell_setting           monoclinic
_symmetry_space_group_name_H-M   'P c'
_symmetry_Int_Tables_number      7
_space_group_name_Hall           'P -2yc'
loop_
_symmetry_equiv_pos_site_id
_symmetry_equiv_pos_as_xyz
1 x,y,z
2 x,-y,1/2+z
_cell_length_a                   7.309(3)
_cell_length_b                   5.169(4)
_cell_length_c                   11.583(2)
_cell_angle_alpha                90
_cell_angle_beta                 95.22(2)
_cell_angle_gamma                90
_cell_volume                     435.793
loop_
_atom_site_label
_atom_site_type_symbol
_atom_site_fract_x
_atom_site_fract_y
_atom_site_fract_z
O1 O 0.2640(5) 0.3039(3) -0.1839(3)
O2 O 0.0943(5) 0.6212(4) -0.1381(3)
O3 O 0.3748(5) 1.2009(3) 0.1899(3)
O4 O 0.6439(5) 1.1153(4) 0.2666(3)
O5 O 0.9979(5) 0.3795(4) 0.0945(3)
O6 O 0.8435(5) 0.1516(3) -0.0362(3)
N1 N 0.2409(5) 0.4981(3) -0.1263(3)
N2 N 0.5140(5) 1.0634(3) 0.1947(3)
N3 N 0.8551(5) 0.3358(3) 0.0317(3)
N4 N 0.2128(5) 0.9260(4) 0.0321(3)
N5 N 0.8346(5) 0.7480(4) 0.1984(3)
C1 C 0.3877(5) 0.5809(3) -0.0419(3)
C2 C 0.3681(5) 0.7942(3) 0.0360(3)
C3 C 0.5250(5) 0.8509(3) 0.1166(3)
C4 C 0.6933(5) 0.7027(4) 0.1220(3)
C5 C 0.6975(5) 0.4990(3) 0.0382(3)
C6 C 0.5482(5) 0.4437(3) -0.0398(3)
H1 H 0.127(4) 0.880(5) -0.025(2)
H2 H 0.213(4) 1.062(7) 0.082(3)
H3 H 0.821(4) 0.874(6) 0.248(2)
H4 H 0.929(5) 0.654(6) 0.189(3)
H5 H 0.560(3) 0.303(5) -0.089(2)
O1 O 1.2640(5) -0.6961(3) -0.1839(3)
O2 O 1.0943(5) -0.3788(4) -0.1381(3)
O3 O 1.3748(5) 0.2009(3) 0.1899(3)
O4 O 1.6439(5) 0.1153(4) 0.2666(3)
O5 O 1.9979(5) -0.6205(4) 0.0945(3)
O6 O 1.8435(5) -0.8484(3) -0.0362(3)
N1 N 1.2409(5) -0.5019(3) -0.1263(3)
N2 N 1.5140(5) 0.0634(3) 0.1947(3)
N3 N 1.8551(5) -0.6642(3) 0.0317(3)
N4 N 1.2128(5) -0.0740(4) 0.0321(3)
N5 N 1.8346(5) -0.2520(4) 0.1984(3)
C1 C 1.3877(5) -0.4191(3) -0.0419(3)
C2 C 1.3681(5) -0.2058(3) 0.0360(3)
C3 C 1.5250(5) -0.1491(3) 0.1166(3)
C4 C 1.6933(5) -0.2973(4) 0.1220(3)
C5 C 1.6975(5) -0.5010(3) 0.0382(3)
C6 C 1.5482(5) -0.5563(3) -0.0398(3)
H1 H 1.127(4) -0.120(5) -0.025(2)
H2 H 1.213(4) 0.062(7) 0.082(3)
H3 H 1.821(4) -0.126(6) 0.248(2)
H4 H 1.929(5) -0.346(6) 0.189(3)
H5 H 1.560(3) -0.697(5) -0.089(2)

#END
