
#######################################################################
#
#                 Cambridge Crystallographic Data Centre
#                                CCDC 
#
#######################################################################
#
# If this CIF has been generated from an entry in the Cambridge 
# Structural Database, then it will include bibliographic, chemical, 
# crystal, experimental, refinement or atomic coordinate data resulting 
# from the CCDC's data processing and validation procedures.
#
#######################################################################

data_PUBMUU02
_symmetry_cell_setting           monoclinic
_symmetry_space_group_name_H-M   'P 21/n'
_symmetry_Int_Tables_number      14
_space_group_name_Hall           '-P 2yn'
loop_
_symmetry_equiv_pos_site_id
_symmetry_equiv_pos_as_xyz
1 x,y,z
2 1/2-x,1/2+y,1/2-z
3 -x,-y,-z
4 1/2+x,1/2-y,1/2+z
_cell_length_a                   8.852(2)
_cell_length_b                   12.556(3)
_cell_length_c                   13.386(3)
_cell_angle_alpha                90
_cell_angle_beta                 106.82(2)
_cell_angle_gamma                90
_cell_volume                     1424.15
loop_
_atom_site_label
_atom_site_type_symbol
_atom_site_fract_x
_atom_site_fract_y
_atom_site_fract_z
C1 C 0.4374(2) 0.6373(2) 0.8657(2)
H1 H 0.4198(27) 0.6418(19) 0.9313(18)
N1 N 0.3029(2) 0.59733(14) 0.78357(13)
N2 N 0.1518(2) 0.6059(2) 0.8017(2)
O1 O 0.0392(2) 0.61538(14) 0.7257(2)
O2 O 0.1519(2) 0.5967(2) 0.8917(2)
C2 C 0.3167(2) 0.6365(2) 0.6834(2)
H2 H 0.2140(28) 0.6533(19) 0.6331(18)
N3 N 0.3887(2) 0.55455(14) 0.63653(13)
N4 N 0.3121(2) 0.5124(2) 0.53944(14)
O3 O 0.3749(2) 0.43742(14) 0.51000(12)
O4 O 0.1906(2) 0.5549(2) 0.49201(14)
C3 C 0.5451(2) 0.5196(2) 0.6926(2)
H3 H 0.5822(27) 0.4693(19) 0.6532(18)
N5 N 0.5514(2) 0.47789(13) 0.79625(13)
N6 N 0.4514(2) 0.39691(14) 0.80497(14)
O5 O 0.4040(2) 0.33973(12) 0.72922(13)
O6 O 0.4231(2) 0.38818(13) 0.88858(12)
C4 C 0.5851(2) 0.5622(2) 0.8735(2)
H4 H 0.6276(27) 0.5353(19) 0.9411(19)
N7 N 0.7064(2) 0.61363(14) 0.83683(13)
N8 N 0.7860(2) 0.6979(2) 0.89494(14)
O7 O 0.8485(2) 0.76092(14) 0.85045(14)
O8 O 0.7890(2) 0.6997(2) 0.98628(12)
C5 C 0.6579(2) 0.6189(2) 0.7215(2)
H5 H 0.7451(29) 0.6161(18) 0.6957(18)
N9 N 0.5677(2) 0.71259(14) 0.67918(13)
N10 N 0.6460(2) 0.7983(2) 0.64663(15)
O9 O 0.5887(2) 0.88556(14) 0.6474(2)
O10 O 0.7596(2) 0.77526(14) 0.61841(14)
C6 C 0.4314(2) 0.7349(2) 0.7138(2)
H6 H 0.3845(28) 0.7978(20) 0.6840(18)
N11 N 0.4718(2) 0.74090(13) 0.82785(13)
N12 N 0.4188(2) 0.83113(15) 0.8723(2)
O11 O 0.4029(2) 0.91205(13) 0.82158(15)
O12 O 0.4017(2) 0.81931(15) 0.95792(15)
C1 C 0.0626(2) 0.1373(2) 0.6343(2)
H1 H 0.0802(27) 0.1418(19) 0.5687(18)
N1 N 0.1971(2) 0.09733(14) 0.71643(13)
N2 N 0.3482(2) 0.1059(2) 0.6983(2)
O1 O 0.4608(2) 0.11538(14) 0.7743(2)
O2 O 0.3481(2) 0.0967(2) 0.6083(2)
C2 C 0.1833(2) 0.1365(2) 0.8166(2)
H2 H 0.2860(28) 0.1533(19) 0.8669(18)
N3 N 0.1113(2) 0.05455(14) 0.86347(13)
N4 N 0.1879(2) 0.0124(2) 0.96056(14)
O3 O 0.1251(2) -0.06258(14) 0.99000(12)
O4 O 0.3094(2) 0.0549(2) 1.00799(14)
C3 C -0.0451(2) 0.0196(2) 0.8074(2)
H3 H -0.0822(27) -0.0307(19) 0.8468(18)
N5 N -0.0514(2) -0.02211(13) 0.70375(13)
N6 N 0.0486(2) -0.10309(14) 0.69503(14)
O5 O 0.0960(2) -0.16027(12) 0.77078(13)
O6 O 0.0769(2) -0.11182(13) 0.61142(12)
C4 C -0.0851(2) 0.0622(2) 0.6265(2)
H4 H -0.1276(27) 0.0353(19) 0.5589(19)
N7 N -0.2064(2) 0.11363(14) 0.66317(13)
N8 N -0.2860(2) 0.1979(2) 0.60506(14)
O7 O -0.3485(2) 0.26092(14) 0.64955(14)
O8 O -0.2890(2) 0.1997(2) 0.51372(12)
C5 C -0.1579(2) 0.1189(2) 0.7785(2)
H5 H -0.2451(29) 0.1161(18) 0.8043(18)
N9 N -0.0677(2) 0.21259(14) 0.82082(13)
N10 N -0.1460(2) 0.2983(2) 0.85337(15)
O9 O -0.0887(2) 0.38556(14) 0.8526(2)
O10 O -0.2596(2) 0.27526(14) 0.88159(14)
C6 C 0.0686(2) 0.2349(2) 0.7862(2)
H6 H 0.1155(28) 0.2978(20) 0.8160(18)
N11 N 0.0282(2) 0.24090(13) 0.67215(13)
N12 N 0.0812(2) 0.33113(15) 0.6277(2)
O11 O 0.0971(2) 0.41205(13) 0.67842(15)
O12 O 0.0983(2) 0.31931(15) 0.54208(15)
C1 C 0.5626(2) 0.3627(2) 0.1343(2)
H1 H 0.5802(27) 0.3582(19) 0.0687(18)
N1 N 0.6971(2) 0.40267(14) 0.21643(13)
N2 N 0.8482(2) 0.3941(2) 0.1983(2)
O1 O 0.9608(2) 0.38462(14) 0.2743(2)
O2 O 0.8481(2) 0.4033(2) 0.1083(2)
C2 C 0.6833(2) 0.3635(2) 0.3166(2)
H2 H 0.7860(28) 0.3467(19) 0.3669(18)
N3 N 0.6113(2) 0.44545(14) 0.36347(13)
N4 N 0.6879(2) 0.4876(2) 0.46056(14)
O3 O 0.6251(2) 0.56258(14) 0.49000(12)
O4 O 0.8094(2) 0.4451(2) 0.50799(14)
C3 C 0.4549(2) 0.4804(2) 0.3074(2)
H3 H 0.4178(27) 0.5307(19) 0.3468(18)
N5 N 0.4486(2) 0.52211(13) 0.20375(13)
N6 N 0.5486(2) 0.60309(14) 0.19503(14)
O5 O 0.5960(2) 0.66027(12) 0.27078(13)
O6 O 0.5769(2) 0.61182(13) 0.11142(12)
C4 C 0.4149(2) 0.4378(2) 0.1265(2)
H4 H 0.3724(27) 0.4647(19) 0.0589(19)
N7 N 0.2936(2) 0.38637(14) 0.16317(13)
N8 N 0.2140(2) 0.3021(2) 0.10506(14)
O7 O 0.1515(2) 0.23908(14) 0.14955(14)
O8 O 0.2110(2) 0.3003(2) 0.01372(12)
C5 C 0.3421(2) 0.3811(2) 0.2785(2)
H5 H 0.2549(29) 0.3839(18) 0.3043(18)
N9 N 0.4323(2) 0.28741(14) 0.32082(13)
N10 N 0.3540(2) 0.2017(2) 0.35337(15)
O9 O 0.4113(2) 0.11444(14) 0.3526(2)
O10 O 0.2404(2) 0.22474(14) 0.38159(14)
C6 C 0.5686(2) 0.2651(2) 0.2862(2)
H6 H 0.6155(28) 0.2022(20) 0.3160(18)
N11 N 0.5282(2) 0.25910(13) 0.17215(13)
N12 N 0.5812(2) 0.16887(15) 0.1277(2)
O11 O 0.5971(2) 0.08795(13) 0.17842(15)
O12 O 0.5983(2) 0.18069(15) 0.04208(15)
C1 C 0.9374(2) 0.8627(2) 0.3657(2)
H1 H 0.9198(27) 0.8582(19) 0.4313(18)
N1 N 0.8029(2) 0.90267(14) 0.28357(13)
N2 N 0.6518(2) 0.8941(2) 0.3017(2)
O1 O 0.5392(2) 0.88462(14) 0.2257(2)
O2 O 0.6519(2) 0.9033(2) 0.3917(2)
C2 C 0.8167(2) 0.8635(2) 0.1834(2)
H2 H 0.7140(28) 0.8467(19) 0.1331(18)
N3 N 0.8887(2) 0.94545(14) 0.13653(13)
N4 N 0.8121(2) 0.9876(2) 0.03944(14)
O3 O 0.8749(2) 1.06258(14) 0.01000(12)
O4 O 0.6906(2) 0.9451(2) -0.00799(14)
C3 C 1.0451(2) 0.9804(2) 0.1926(2)
H3 H 1.0822(27) 1.0307(19) 0.1532(18)
N5 N 1.0514(2) 1.02211(13) 0.29625(13)
N6 N 0.9514(2) 1.10309(14) 0.30497(14)
O5 O 0.9040(2) 1.16027(12) 0.22922(13)
O6 O 0.9231(2) 1.11182(13) 0.38858(12)
C4 C 1.0851(2) 0.9378(2) 0.3735(2)
H4 H 1.1276(27) 0.9647(19) 0.4411(19)
N7 N 1.2064(2) 0.88637(14) 0.33683(13)
N8 N 1.2860(2) 0.8021(2) 0.39494(14)
O7 O 1.3485(2) 0.73908(14) 0.35045(14)
O8 O 1.2890(2) 0.8003(2) 0.48628(12)
C5 C 1.1579(2) 0.8811(2) 0.2215(2)
H5 H 1.2451(29) 0.8839(18) 0.1957(18)
N9 N 1.0677(2) 0.78741(14) 0.17918(13)
N10 N 1.1460(2) 0.7017(2) 0.14663(15)
O9 O 1.0887(2) 0.61444(14) 0.1474(2)
O10 O 1.2596(2) 0.72474(14) 0.11841(14)
C6 C 0.9314(2) 0.7651(2) 0.2138(2)
H6 H 0.8845(28) 0.7022(20) 0.1840(18)
N11 N 0.9718(2) 0.75910(13) 0.32785(13)
N12 N 0.9188(2) 0.66887(15) 0.3723(2)
O11 O 0.9029(2) 0.58795(13) 0.32158(15)
O12 O 0.9017(2) 0.68069(15) 0.45792(15)

#END
